Andika/MatLab/HW3_finalsolution.txt
                   Power Flow Solution by Newton-Raphson Method
                      Maximum Power Mismatch = 1.55071e-08 
                             No. of Iterations = 2 

    Bus  Voltage  Angle    ------Load------    ---Generation---   Injected
    No.  Mag.     Degree     MW       Mvar       MW       Mvar       Mvar 
                                                                          
     1   1.030    0.000     0.000     0.000    70.360    35.459     0.000
     2   1.040   -0.142    20.000    10.000   181.557   169.819     0.000
     3   1.019   -1.066    25.000    15.000     0.000     0.000     1.000
     4   1.004   -1.937    10.000     5.000     0.000     0.000     3.000
     5   0.988   -2.554    40.000    20.000     0.000     0.000     0.000
     6   0.992   -2.046    60.000    40.000     0.000     0.000     0.000
     7   1.010   -0.738    10.000     5.000    97.111    36.642     0.000
     8   1.001   -1.006    80.000    60.000     0.000     0.000     0.000
     9   1.005   -1.426   100.000    80.000     0.000     0.000     0.000
      
    Total                 345.000   235.000   349.028   241.919     4.000


Total generation cost =    3194.85 $/h 

                           Line Flow and Losses 

     --Line--  Power at bus & line flow    --Line loss--  Transformer
     from  to    MW      Mvar     MVA       MW      Mvar      tap
   
     1         70.360   35.459   78.790
           2   -1.300  -19.112   19.156    0.059   -0.787
           8   71.661   54.571   90.073    1.075    2.146
   
     2        161.557  159.819  227.251
           1    1.360   18.325   18.376    0.059   -0.787
           9   98.775  103.158  142.821    1.135    5.090
           3   61.423   38.336   72.405    0.633    1.117
   
     3        -25.000  -14.000   28.653
           2  -60.790  -37.219   71.279    0.633    1.117
           4   35.790   23.219   42.662    0.175    0.876
   
     4        -10.000   -2.000   10.198
           3  -35.615  -22.342   42.043    0.175    0.876
           5   25.615   20.342   32.710    0.191    0.594
   
     5        -40.000  -20.000   44.721
           4  -25.424  -19.748   32.193    0.191    0.594
           6  -14.576   -0.252   14.578    0.044    0.131
   
     6        -60.000  -40.000   72.111
           5   14.620    0.382   14.625    0.044    0.131
           7  -57.723  -21.210   61.497    0.575    0.963
           9  -16.896  -19.172   25.555    0.013    0.438
   
     7         87.111   31.642   92.679
           6   58.298   22.172   62.372    0.575    0.963
           8    9.461    7.686   12.190    0.047    0.111
           9   19.352    1.783   19.434    0.081    0.241
   
     8        -80.000  -60.000  100.000
           1  -70.585  -52.425   87.924    1.075    2.146
           7   -9.415   -7.575   12.084    0.047    0.111
   
     9       -100.000  -80.000  128.062
           2  -97.640  -98.068  138.387    1.135    5.090
           6   16.910   19.611   25.894    0.013    0.438
           7  -19.270   -1.543   19.332    0.081    0.241
   
    Total loss                             4.028   10.919
